C6H7B
APtclcactv06072516133D 0   0.00000     0.00000
 
 14 14  0  0  0  0  0  0  0  0999 V2000
   -1.5679   -0.3280    0.0003 C   0  0  0  0  0  0  0  0  0  0  0  0
   -0.6886   -1.4133    0.0003 C   0  0  0  0  0  0  0  0  0  0  0  0
    0.6875   -1.4138   -0.0001 C   0  0  0  0  0  0  0  0  0  0  0  0
    1.5677   -0.3292   -0.0002 C   0  0  0  0  0  0  0  0  0  0  0  0
    1.2782    1.0021    0.0000 C   0  0  0  0  0  0  0  0  0  0  0  0
    0.0006    1.6246    0.0001 B   0  0  0  0  0  0  0  0  0  0  0  0
   -1.2774    1.0030   -0.0001 C   0  0  0  0  0  0  0  0  0  0  0  0
   -2.6187   -0.5774   -0.0043 H   0  0  0  0  0  0  0  0  0  0  0  0
   -1.1536   -2.3880    0.0011 H   0  0  0  0  0  0  0  0  0  0  0  0
    1.1517   -2.3889   -0.0000 H   0  0  0  0  0  0  0  0  0  0  0  0
    2.6183   -0.5794   -0.0002 H   0  0  0  0  0  0  0  0  0  0  0  0
    2.1276    1.6691    0.0007 H   0  0  0  0  0  0  0  0  0  0  0  0
    0.0011    2.7946    0.0004 H   0  0  0  0  0  0  0  0  0  0  0  0
   -2.1263    1.6707   -0.0004 H   0  0  0  0  0  0  0  0  0  0  0  0
  1  2  1  0  0  0  0
  2  3  2  0  0  0  0
  3  4  1  0  0  0  0
  4  5  2  0  0  0  0
  5  6  1  0  0  0  0
  6  7  1  0  0  0  0
  1  7  2  0  0  0  0
  1  8  1  0  0  0  0
  2  9  1  0  0  0  0
  3 10  1  0  0  0  0
  4 11  1  0  0  0  0
  5 12  1  0  0  0  0
  6 13  1  0  0  0  0
  7 14  1  0  0  0  0
M  END
$$$$
